/*--------------------------------*- C++ -*----------------------------------*\
| =========                 |                                                 |
| \\      /  F ield         | foam-extend: Open Source CFD                    |
|  \\    /   O peration     | Version:     4.0                                |
|   \\  /    A nd           | Web:         http://www.foam-extend.org         |
|    \\/     M anipulation  |                                                 |
\*---------------------------------------------------------------------------*/
FoamFile
{
    version     2.0;
    format      ascii;
    class       volScalarField;
    location    "0";
    object      Phi;
}
// * * * * * * * * * * * * * * * * * * * * * * * * * * * * * * * * * * * * * //

dimensions      [ 0 0 0 1 0 0 0 ];

internalField   uniform 0;

boundaryField
{
    ground
    {
        type            fixedValue;
        value           uniform 0;
    }
    electrode
    {
        type            plasmaPotential;
        model           sinFrequencyModulated;
        amplitude       uniform 150;
        frequency       10E6;
        bias            0.0;
        R		0.0;
        C               1e-6;
        Phi		uniform 0;
    }
    open
    {
       type            fixedValue;
        value           uniform 0;
    }
    symmetry
    {
	type symmetryPlane;
    }
    otherfaces
    {
        type            empty;
    }
}
