/*--------------------------------*- C++ -*----------------------------------*\
| =========                 |                                                 |
| \\      /  F ield         | foam-extend: Open Source CFD                    |
|  \\    /   O peration     | Version:     4.0                                |
|   \\  /    A nd           | Web:         http://www.foam-extend.org         |
|    \\/     M anipulation  |                                                 |
\*---------------------------------------------------------------------------*/
FoamFile
{
    version     2.0;
    format      ascii;
    class       polyBoundaryMesh;
    location    "constant/polyMesh";
    object      boundary;
}
// * * * * * * * * * * * * * * * * * * * * * * * * * * * * * * * * * * * * * //

4
(
    otherfaces
    {
        type            empty;
        nFaces          632250;
        startFace       473420;
    }
    ground
    {
        type            patch;
        nFaces          800;
        startFace       1105670;
    }
    symmetry
    {
        type            patch;
        nFaces          400;
        startFace       1106470;
    }
    electrode
    {
        type            patch;
        nFaces          335;
        startFace       1106870;
    }
)


// ************************************************************************* //
